* analysis_type
plane_strain

* material
1  2
1  1.0e5  0.2

* node
45  2
 1  0.0    0.0
 2  0.0   -0.5
 3  0.0   -1.0
 4  0.0   -1.5
 5  0.0   -2.0
 6  0.25   0.0
 7  0.25  -0.5
 8  0.25  -1.0
 9  0.25  -1.5
10  0.25  -2.0
11  0.5    0.0
12  0.5   -0.5
13  0.5   -1.0
14  0.5   -1.5
15  0.5   -2.0
16  0.75   0.0
17  0.75  -0.5
18  0.75  -1.0
19  0.75  -1.5
20  0.75  -2.0
21  1.0    0.0
22  1.0   -0.5
23  1.0   -1.0
24  1.0   -1.5
25  1.0   -2.0
26  2.25   0.0
27  2.25  -0.5
28  2.25  -1.0
29  2.25  -1.5
30  2.25  -2.0
31  3.5    0.0
32  3.5   -0.5
33  3.5   -1.0
34  3.5   -1.5
35  3.5   -2.0
36  4.75   0.0
37  4.75  -0.5
38  4.75  -1.0
39  4.75  -1.5
40  4.75  -2.0
41  6.0    0.0
42  6.0   -0.5
43  6.0   -1.0
44  6.0   -1.5
45  6.0   -2.0

# 4个单元，每个单元12个积分点
* element
tria15  4  12
1  1 6 11 16 21 17 13 9 5 4 3 2 7 12 8
2 25 20 15 10 5 9 13 17 21 22 23 24 19 14 18
3 21 26 31 36 41 37 33 29 25 24 23 22 27 32 28
4 45 40 35 30 25 29 33 37 41 42 43 44 39 34 38

* constraint
17  2
 1 0 1
 2 0 1
 3 0 1
 4 0 1
 5 0 0
10 0 0
15 0 0
20 0 0
25 0 0
30 0 0
35 0 0
40 0 0
41 0 1
42 0 1
43 0 1
44 0 1
45 0 0

* force
5  2
1  0.0 -0.0778
6  0.0 -0.3556
11  0.0 -0.1333
16  0.0 -0.3556
21  0.0 -0.0778

* displacement
0  2
