* material
3  4
10  1.0e12  0.01  1.0e-6  20.0
20  1.0e12  0.01  1.0e-6  50.0
30  1.0e12  0.01  1.0e-6  80.0

* node
8  2
1  0.0  0.0
2  0.0 15.0
3 10.0 15.0
4 20.0 15.0
5 20.0  0.0
6 35.0 15.0
7 50.0 15.0
8 50.0  0.0

# 单元块，由四部分构成：
#   1.单元数和单元节点数
#   2.单元中的节点
#   3.单元的材料属性（如果只有一种属性，则不能输入该部分）
#   4.单元的转动角度（仅三维问题时需要，一维和二维问题不能输入）
* element
7 2
1 1 2
2 2 3
3 3 4
4 5 4
5 4 6
6 6 7
7 8 7
10
20
20
10
30
30
10

* constraint
3  3
1 0 0 0
5 0 0 0
8 0 0 0

* force
3  3
2  4.0    0.0    0.0
3  0.0   -6.0    0.0
6  0.0  -12.0    0.0

* max_iter
200
* tolerance
0.0001

* increments
0.5  0.3  0.2  0.2  0.1  0.05  0.02  0.01
