* material
1  9
1  100.0  0.01  100.0  100.0  40.0  0.025  1.0  1.0  1.e8

* node
10  3
 1  0.0  0.0  0.0
 2  1.0  0.0  0.0
 3  1.0  1.0  0.0
 4  2.0  0.0  0.0
 5  2.0  1.0  0.0
 6  2.0  2.0  0.0
 7  3.0  0.0  0.0
 8  3.0  1.0  0.0
 9  3.0  2.0  0.0
10  3.0  3.0  0.0

# 单元块，由四部分构成：
#   1.单元数和单元节点数
#   2.单元中的节点
#   3.单元的材料属性（如果只有一种属性，则不能输入该部分）
#   4.单元的转动角度（仅三维问题时需要，一维和二维问题不能输入）
* element
12  2
 1 1 2
 2 2 3
 3 2 4
 4 3 5
 5 4 5
 6 5 6
 7 4 7
 8 5 8
 9 6 9
10 7 8
11 8 9
12 9 10
0.0
0.0
0.0
0.0
0.0
0.0
0.0
0.0
0.0
0.0
0.0
0.0

* constraint
4  6
1 0 0 0 0 0 0
3 0 0 0 0 0 0
6 0 0 0 0 0 0
10 0 0 0 0 0 0

* force
1  6
7  0.0  0.0  1.0  0.0  0.0  0.0

* max_iter
200
* tolerance
0.00001

* increments
0.5 0.5 0.5 0.05 0.05
